Version 4
SHEET 1 3476 2148
WIRE 2704 -1872 2608 -1872
WIRE 2720 -1872 2720 -1904
WIRE 176 -1856 128 -1856
WIRE 176 -1840 176 -1856
WIRE 2704 -1840 2608 -1840
WIRE 2720 -1840 2720 -1872
WIRE 2704 -1808 2608 -1808
WIRE 2720 -1808 2720 -1840
WIRE 2704 -1776 2608 -1776
WIRE 2720 -1776 2720 -1808
WIRE 176 -1744 176 -1760
WIRE 112 -1680 64 -1680
WIRE 112 -1600 64 -1600
WIRE 2016 -1600 2016 -1664
WIRE 528 -1584 240 -1584
WIRE 816 -1584 608 -1584
WIRE 1056 -1584 816 -1584
WIRE 1312 -1584 1120 -1584
WIRE 1424 -1584 1392 -1584
WIRE 816 -1536 816 -1584
WIRE 1904 -1488 1680 -1488
WIRE 1008 -1456 992 -1456
WIRE 1120 -1456 1088 -1456
WIRE 1184 -1456 1120 -1456
WIRE 1120 -1440 1120 -1456
WIRE 176 -1424 176 -1552
WIRE 816 -1424 816 -1456
WIRE 816 -1424 176 -1424
WIRE 816 -1392 816 -1424
WIRE 2416 -1376 2160 -1376
WIRE 1120 -1360 1120 -1376
WIRE 1424 -1328 1360 -1328
WIRE 1424 -1264 1360 -1264
WIRE 1904 -1232 1840 -1232
WIRE 1840 -1200 1840 -1232
FLAG 2608 -1872 Supply[1]
FLAG 2608 -1840 Supply[2]
FLAG 2608 -1808 Supply[3]
FLAG 2608 -1776 Supply[4]
FLAG 816 -1392 0
FLAG 128 -1856 Supply[1]
IOPIN 128 -1856 In
FLAG 1360 -1328 SensorCom1
IOPIN 1360 -1328 In
FLAG 1360 -1264 SensorCom2
IOPIN 1360 -1264 In
FLAG 1840 -1200 0
FLAG 1120 -1360 0
BUSTAP 2704 -1872 2720 -1872
BUSTAP 2704 -1840 2720 -1840
BUSTAP 2704 -1808 2720 -1808
BUSTAP 2704 -1776 2720 -1776
SYMBOL res 800 -1552 R0
WINDOW 39 36 60 Left 2
SYMATTR InstName R_Sense_1
SYMATTR Value 100
SYMATTR SpiceLine tol=0.1
SYMBOL Switches\\ADG1209 1552 -1328 R0
SYMATTR InstName U3
SYMBOL res 624 -1600 R90
WINDOW 0 0 56 VBottom 2
WINDOW 3 32 56 VTop 2
SYMATTR InstName R_wire_ToADC
SYMBOL res 192 -1744 R180
WINDOW 0 36 76 Left 2
WINDOW 3 36 40 Left 2
SYMATTR InstName R_wire_Loop
SYMATTR Value R_wire
SYMBOL res 1408 -1600 R90
WINDOW 0 0 56 VBottom 2
WINDOW 3 32 56 VTop 2
SYMATTR InstName R_ON
SYMATTR Value 120
SYMBOL res 1104 -1472 R90
WINDOW 0 0 56 VBottom 2
WINDOW 3 32 56 VTop 2
SYMATTR InstName R1
SYMATTR Value 10k
SYMBOL cap 1104 -1440 R0
SYMATTR InstName C1
SYMATTR Value 10n
TEXT 2600 -1960 Left 5 ;Supply
TEXT -72 -1016 Left 2 ;@ AWG 26  - Ø : 0.404mm Copper cable\n@ 2 meter cable: 5.36mV drop\n@ 3 meter cable: 8.04mV drop
TEXT -72 -1304 Left 2 ;Transmitter + R_Sense + 3.0m Wire = 14.08V
TEXT -72 -1280 Left 2 ;9.92V left if 24V supply used
TEXT -72 -1256 Left 2 ;0.92V left if 15V supply used
TEXT 176 -1664 Center 2 ;Sensor \nTransmitter
TEXT 32 -1536 VLeft 3 ;Sensor
TEXT 632 -1504 Left 2 ;0.4V : 2V Drop
TEXT 200 -1760 Left 2 ;min. 12 V required
TEXT 248 -1592 Left 2 ;SensorCurrentOut
TEXT 160 -1736 Left 2 ;Supply
TEXT 1000 -1752 Left 2 ;Signal condition \nFilter / Impedans
TEXT 984 -1664 Left 2 ;0.4V:2V \nImpedans >>
TEXT 1352 -1248 Left 2 ;00 : S1\n01 : S2\n10 : S3\n11 : S4
TEXT 1232 -1296 Left 2 ;3.3 V Logic input
TEXT 1912 -1520 Left 2 ;> 10bit Sigma Delta ADC
TEXT 1944 -1368 Left 2 ;Int. Prec. 2.5V REF
TEXT 2176 -1424 Left 2 ;0b 0000 0000 00xx xxxx
TEXT 1912 -1488 Left 2 ;ADC +
TEXT 2264 -1056 Left 2 ;Multiplex logic control
TEXT 1968 -1216 Left 2 ;> 10 Bit ADC
TEXT 2192 -1480 Left 2 ;SPI sends > 10 bit signal \nto sensorController
TEXT 1024 -1528 Left 2 ;~ LP @ 1.6kHz
TEXT 1024 -1544 Left 2 ;~ 10k/10nF
TEXT 1000 -1560 Left 2 ;HF Noise suppresion
TEXT -72 -1120 Left 2 ;Wire introduces voltage drop of\nWireResistiance [mOhm / m ]  \n* Length [m] \n* 4:20mA
TEXT 824 -1224 Left 2 ;Determine :\nJohnson Noise
TEXT 288 -1888 Left 2 ;Sensor n/4
TEXT -72 -1224 Left 2 ;AWG\n20\n22\n24\n26
TEXT 0 -1224 Left 2 ;mOhm / m\n33.5\n52.8\n84.3\n134
TEXT 808 -920 Left 4 ;"ADC BLOCK"
TEXT 1352 -1864 Left 2 ;Multiplexer's in general
TEXT 2552 -1568 Center 3 ;µC\nSensorController
TEXT 2368 -1368 Left 2 ;SPI\nMOSI\nMISO\nSLC\nSDA
TEXT 1752 -1504 Left 2 ;0.4V:2V
TEXT -160 -792 Left 2 ;µC selects Sensor utilizing the mux. \nµC reads selected data with ranges given for sensor\nData input is _always_ 0.4:2 [V]\nIf data is out of range = ERROR\nShould simply the process as all data is in \nsame range, which allows the use of a single ADC \nand the only data interpretation is handled in the µC-unit
TEXT -160 -816 Left 3 ;THEORY OF OPERATION
TEXT 400 -800 Left 2 ;4-20mA ADC converter\ncapable of handling sensor units\neach running a 3-wire setup.
TEXT 400 -712 Left 2 ;Requirements for measurements:\nMin resolution: 320µA / [measUNIT]\n \nTime from Read Request \nto ADC Data ready:\n800 ms
TEXT 120 -1376 Left 2 ;4:20mA sensor/transmitter \nBought from external supplier
TEXT 168 -1560 Left 2 ;Gnd
TEXT 1760 -1416 Left 2 ;Buffer ?
TEXT 2240 -1264 Left 2 ;Buffer ?
TEXT 536 -1552 Left 2 ;1-3 [m]
TEXT 504 -1656 Left 2 ;4-20mA
TEXT 136 -1624 Left 2 ;BlackBox
LINE Normal -11 -1425 -32 -1408 2
LINE Normal -2 -1413 -11 -1425 2
LINE Normal 14 -1424 -2 -1413 2
LINE Normal 25 -1421 14 -1424 2
LINE Normal 45 -1426 25 -1421 2
LINE Normal 51 -1419 45 -1426 2
LINE Normal 71 -1425 51 -1419 2
LINE Normal 84 -1415 71 -1425 2
LINE Normal 98 -1417 84 -1415 2
LINE Normal 109 -1420 98 -1417 2
LINE Normal 80 -1696 112 -1696 2
LINE Normal 97 -1705 80 -1696 2
LINE Normal 96 -1689 97 -1705 2
LINE Normal 80 -1696 96 -1689 2
LINE Normal 96 -1616 80 -1616 2
LINE Normal 89 -1624 96 -1616 2
LINE Normal 89 -1608 89 -1624 2
LINE Normal 96 -1616 89 -1608 2
LINE Normal 2560 -1072 2560 -1200 2
LINE Normal 1296 -1072 2560 -1072 2
LINE Normal 1296 -1184 1296 -1072 2
LINE Normal 1280 -1152 1296 -1184 2
LINE Normal 1312 -1152 1280 -1152 2
LINE Normal 1296 -1184 1312 -1152 2
LINE Normal 1936 -1456 1984 -1456 2
LINE Normal 1968 -1424 1936 -1456 2
LINE Normal 1936 -1392 1968 -1424 2
LINE Normal 1984 -1392 1936 -1392 2
LINE Normal 2080 -1392 2016 -1392 2
LINE Normal 2048 -1456 2080 -1392 2
LINE Normal 2016 -1392 2048 -1456 2
LINE Normal 1392 -1808 1408 -1584 2
LINE Normal 992 -1232 864 -1456 2
LINE Normal 1040 -1408 992 -1232 2
LINE Normal 992 -1232 1344 -1552 2
LINE Normal 816 -1488 688 -1472 2
LINE Normal 2688 -1520 2912 -1520 2
LINE Normal 2736 -1536 2688 -1520 2
LINE Normal 2736 -1504 2736 -1536 2
LINE Normal 2688 -1520 2736 -1504 2
LINE Normal 2928 -1328 2688 -1328 2
LINE Normal 2896 -1344 2928 -1328 2
LINE Normal 2928 -1328 2896 -1312 2
LINE Normal 336 -1648 272 -1648 1
LINE Normal 496 -1648 336 -1648 1
LINE Normal 704 -1616 496 -1648 1
LINE Normal 768 -1536 704 -1616 1
LINE Normal 816 -1424 768 -1536 1
LINE Normal 592 -1664 624 -1648 2
LINE Normal 592 -1632 592 -1664 2
LINE Normal 624 -1648 592 -1632 2
RECTANGLE Normal 2864 -1888 2576 -2032 2
RECTANGLE Normal 240 -1552 112 -1744 1
RECTANGLE Normal 64 -1456 0 -1696 2
RECTANGLE Normal 48 -1376 16 -1456 2
RECTANGLE Normal 1200 -1488 976 -1776 2
RECTANGLE Normal 2160 -1200 1904 -1600 2
RECTANGLE Normal 2688 -1200 2416 -1600 2
RECTANGLE Normal 2864 -848 -160 -2032 2
RECTANGLE Normal 1200 -1328 976 -1488 2
RECTANGLE Normal 400 -1344 -64 -1904 2
RECTANGLE Normal 2256 -896 784 -1936 2
RECTANGLE Normal 352 -960 -80 -1232 2
RECTANGLE Normal 1872 -1568 1728 -1392 2
RECTANGLE Normal 2320 -1232 2208 -1392 2
